<additional>
    <edgeData id="edgeMeasurements" file="edge.out.xml" period="60"/>
</additional>