<?xml version="1.0" encoding="UTF-8"?>

<!-- generated on 2022-07-05 11:07:06 by Eclipse SUMO netedit Version v1_12_0+1700-0ea407e0f30
-->

<additional xmlns:xsi="http://www.w3.org/2001/XMLSchema-instance" xsi:noNamespaceSchemaLocation="http://sumo.dlr.de/xsd/additional_file.xsd">
    <!-- Detectors -->
    <e2Detector id="63082002_9_additional" lane="834845345#1_1" pos="266.20" length="3.00" freq="60.00" file="detectors.out.xml"/>
    <e2Detector id="63082002_12_additional" lane="115872656#11.5_0" pos="184.33" length="3.00" freq="60.00" file="detectors.out.xml"/>
    <e2Detector id="63082002_11_additional" lane="115872656#11.5_1" pos="184.32" length="3.00" freq="60.00" file="detectors.out.xml"/>
    <e2Detector id="63082002_2_0" lane="gneE11_0" pos="30.70" length="3.00" freq="60.00" file="detectors.out.xml"/>
    <e2Detector id="63082002_2_1" lane="gneE11_1" pos="30.70" length="3.00" freq="60.00" file="detectors.out.xml"/>
    <e2Detector id="63082002_4_0" lane="gneE0.12_0" pos="8.50" length="15.24" freq="60.00" file="detectors.out.xml" friendlyPos="1"/>
    <e2Detector id="63082002_5_0" lane="gneE31_0" pos="95.00" length="15.24" freq="60.00" file="detectors.out.xml"/>
    <e2Detector id="63082002_6_0" lane="834845345#2_0" pos="5.00" length="3.00" freq="60.00" file="detectors.out.xml"/>
    <e2Detector id="63082002_6_1" lane="834845345#2_1" pos="5.00" length="3.00" freq="60.00" file="detectors.out.xml"/>
    <e2Detector id="63082002_10_additional" lane="834845345#1_0" pos="266.20" length="3.00" freq="60.00" file="detectors.out.xml"/>
    <e2Detector id="63082003_1_0" lane="834845345#5.74.43_2" pos="64.00" length="15.24" freq="60.00" file="detectors.out.xml"/>
    <e2Detector id="63082003_2_0" lane="115872656#10_0" pos="0.00" length="3.00" freq="60.00" file="detectors.out.xml"/>
    <e2Detector id="63082003_2_1" lane="115872656#10_1" pos="0.00" length="3.00" freq="60.00" file="detectors.out.xml"/>
    <e2Detector id="63082003_3_0" lane="660891910#1.19_1" pos="5.00" length="15.24" freq="60.00" file="detectors.out.xml"/>
    <e2Detector id="63082003_4_0" lane="-638636924#1.9_0" pos="37.81" length="15.24" freq="60.00" file="detectors.out.xml" friendlyPos="1"/>
    <e2Detector id="63082003_5_0" lane="115872656#10.14_2" pos="56.00" length="15.24" freq="60.00" file="detectors.out.xml"/>
    <e2Detector id="63082003_6_0" lane="834845345#5.74_1" pos="6.50" length="3.00" freq="60.00" file="detectors.out.xml"/>
    <e2Detector id="63082003_6_1" lane="834845345#5.74_2" pos="6.50" length="3.00" freq="60.00" file="detectors.out.xml"/>
    <e2Detector id="63082003_7_0" lane="-638636924#1.9_1" pos="37.59" length="15.24" freq="60.00" file="detectors.out.xml"/>
    <e2Detector id="63082003_8_0" lane="660891910#1.19_0" pos="5.00" length="15.24" freq="60.00" file="detectors.out.xml"/>
</additional>
