<?xml version="1.0" encoding="UTF-8"?>

<!-- generated on 2023-02-11 13:16:39 by Eclipse SUMO netedit Version v1_16_0+0059-49cd9d99fb9
<configuration xmlns:xsi="http://www.w3.org/2001/XMLSchema-instance" xsi:noNamespaceSchemaLocation="http://sumo.dlr.de/xsd/netconvertConfiguration.xsd">

    <input>
        <sumo-net-file value="/Users/max/Development/sumo-uc-2023/sumo-xml/net/airport_lowes.net.xml"/>
    </input>

    <output>
        <output-file value="/Users/max/Development/sumo-uc-2023/sumo-xml/net/airport_lowes.net.xml"/>
        <output.street-names value="true"/>
    </output>

    <processing>
        <geometry.min-radius.fix.railways value="false"/>
        <geometry.max-grade.fix value="false"/>
        <offset.disable-normalization value="true"/>
        <lefthand value="0"/>
    </processing>

    <junctions>
        <no-turnarounds value="true"/>
        <junctions.corner-detail value="5"/>
        <junctions.limit-turn-speed value="5.50"/>
        <rectangular-lane-cut value="0"/>
    </junctions>

    <pedestrian>
        <walkingareas value="0"/>
    </pedestrian>

</configuration>
-->

<net version="1.16" junctionCornerDetail="5" limitTurnSpeed="5.50" xmlns:xsi="http://www.w3.org/2001/XMLSchema-instance" xsi:noNamespaceSchemaLocation="http://sumo.dlr.de/xsd/net_file.xsd">

    <location netOffset="-441419.41,-3676592.75" convBoundary="558.02,533.69,1535.45,977.41" origBoundary="-87.628748,33.226723,-87.598600,33.248134" projParameter="+proj=utm +zone=16 +ellps=WGS84 +datum=WGS84 +units=m +no_defs"/>

    <type id="highway.bridleway" priority="1" numLanes="1" speed="2.78" allow="pedestrian" oneway="1" width="2.00"/>
    <type id="highway.bus_guideway" priority="1" numLanes="1" speed="27.78" allow="bus" oneway="1"/>
    <type id="highway.cycleway" priority="1" numLanes="1" speed="8.33" allow="bicycle" oneway="1" width="1.00"/>
    <type id="highway.footway" priority="1" numLanes="1" speed="2.78" allow="pedestrian" oneway="1" width="2.00"/>
    <type id="highway.ford" priority="1" numLanes="1" speed="2.78" allow="army" oneway="1"/>
    <type id="highway.living_street" priority="2" numLanes="1" speed="2.78" disallow="tram rail_urban rail rail_electric rail_fast ship" oneway="1"/>
    <type id="highway.motorway" priority="14" numLanes="2" speed="39.44" allow="private emergency authority army vip passenger hov taxi bus coach delivery truck trailer motorcycle evehicle custom1 custom2" oneway="1"/>
    <type id="highway.motorway_link" priority="9" numLanes="1" speed="22.22" allow="private emergency authority army vip passenger hov taxi bus coach delivery truck trailer motorcycle evehicle custom1 custom2" oneway="1"/>
    <type id="highway.path" priority="1" numLanes="1" speed="2.78" allow="pedestrian bicycle" oneway="1" width="2.00"/>
    <type id="highway.pedestrian" priority="1" numLanes="1" speed="2.78" allow="pedestrian" oneway="1" width="2.00"/>
    <type id="highway.primary" priority="12" numLanes="2" speed="27.78" disallow="tram rail_urban rail rail_electric rail_fast ship" oneway="1"/>
    <type id="highway.primary_link" priority="7" numLanes="1" speed="22.22" disallow="tram rail_urban rail rail_electric rail_fast ship" oneway="1"/>
    <type id="highway.raceway" priority="15" numLanes="2" speed="83.33" allow="vip" oneway="1"/>
    <type id="highway.residential" priority="3" numLanes="1" speed="13.89" disallow="tram rail_urban rail rail_electric rail_fast ship" oneway="1"/>
    <type id="highway.secondary" priority="-1" numLanes="1" speed="13.89" oneway="1" width="-1.00"/>
    <type id="highway.secondary_link" priority="6" numLanes="1" speed="22.22" disallow="tram rail_urban rail rail_electric rail_fast ship" oneway="1"/>
    <type id="highway.service" priority="1" numLanes="1" speed="5.56" allow="pedestrian delivery bicycle" oneway="1"/>
    <type id="highway.stairs" priority="1" numLanes="1" speed="1.39" allow="pedestrian" oneway="1" width="2.00"/>
    <type id="highway.step" priority="1" numLanes="1" speed="1.39" allow="pedestrian" oneway="1" width="2.00"/>
    <type id="highway.steps" priority="1" numLanes="1" speed="1.39" allow="pedestrian" oneway="1" width="2.00"/>
    <type id="highway.tertiary" priority="10" numLanes="1" speed="22.22" disallow="tram rail_urban rail rail_electric rail_fast ship" oneway="1"/>
    <type id="highway.tertiary_link" priority="5" numLanes="1" speed="22.22" disallow="tram rail_urban rail rail_electric rail_fast ship" oneway="1"/>
    <type id="highway.track" priority="1" numLanes="1" speed="5.56" allow="pedestrian motorcycle moped bicycle" oneway="1"/>
    <type id="highway.trunk" priority="13" numLanes="2" speed="27.78" disallow="pedestrian bicycle tram rail_urban rail rail_electric rail_fast ship" oneway="1"/>
    <type id="highway.trunk_link" priority="8" numLanes="1" speed="22.22" disallow="pedestrian bicycle tram rail_urban rail rail_electric rail_fast ship" oneway="1"/>
    <type id="highway.unclassified" priority="4" numLanes="1" speed="13.89" disallow="tram rail_urban rail rail_electric rail_fast ship" oneway="1"/>
    <type id="highway.unsurfaced" priority="1" numLanes="1" speed="8.33" disallow="tram rail_urban rail rail_electric rail_fast ship" oneway="1"/>
    <type id="railway.highspeed" priority="21" numLanes="1" speed="69.44" allow="rail_fast" oneway="1"/>
    <type id="railway.light_rail" priority="19" numLanes="1" speed="27.78" allow="rail_urban" oneway="1"/>
    <type id="railway.preserved" priority="16" numLanes="1" speed="27.78" allow="rail" oneway="1"/>
    <type id="railway.rail" priority="20" numLanes="1" speed="44.44" allow="rail" oneway="1"/>
    <type id="railway.subway" priority="18" numLanes="1" speed="27.78" allow="rail_urban" oneway="1"/>
    <type id="railway.tram" priority="17" numLanes="1" speed="13.89" allow="tram" oneway="1"/>

    <edge id=":6018699112_0" function="internal">
        <lane id=":6018699112_0_0" index="0" disallow="tram rail_urban rail rail_electric rail_fast ship" speed="22.35" length="36.34" width="3.66" shape="1117.32,852.93,49.75 1082.28,843.28,49.62"/>
        <lane id=":6018699112_0_1" index="1" disallow="tram rail_urban rail rail_electric rail_fast ship" speed="22.35" length="36.34" width="3.66" shape="1118.28,849.39,49.75 1083.24,839.75,49.62"/>
    </edge>
    <edge id=":6018699112_2" function="internal">
        <lane id=":6018699112_2_0" index="0" disallow="tram rail_urban rail rail_electric rail_fast ship" speed="22.35" length="36.61" width="3.66" shape="1118.28,849.39,49.75 1109.58,846.34,49.69 1099.49,842.07,49.62 1090.31,838.05,49.55 1084.33,835.73,49.51"/>
    </edge>
    <edge id=":63082002_0" function="internal">
        <lane id=":63082002_0_0" index="0" speed="11.45" length="31.64" width="3.66" shape="976.66,806.76,49.21 968.48,803.28,49.19 963.57,798.14,49.17 961.92,791.33,49.16 963.53,782.85,49.14"/>
    </edge>
    <edge id=":63082002_1" function="internal">
        <lane id=":63082002_1_0" index="0" disallow="tram rail_urban rail rail_electric rail_fast ship" speed="11.78" length="30.71" width="3.66" shape="968.97,784.74,49.14 965.01,794.20,49.08 960.26,800.43,49.04 954.73,803.44,49.00 948.41,803.23,48.97"/>
    </edge>
    <edge id=":63082002_2" function="internal">
        <lane id=":63082002_2_0" index="0" disallow="tram rail_urban rail rail_electric rail_fast ship" speed="22.35" length="28.15" width="3.66" shape="952.58,787.83,49.12 980.00,794.18,49.17"/>
        <lane id=":63082002_2_1" index="1" disallow="tram rail_urban rail rail_electric rail_fast ship" speed="22.35" length="28.15" width="3.66" shape="951.62,791.37,49.12 979.06,797.72,49.17"/>
    </edge>
    <edge id=":63082002_4" function="internal">
        <lane id=":63082002_4_0" index="0" disallow="tram rail_urban rail rail_electric rail_fast ship" speed="22.35" length="28.22" width="3.66" shape="974.68,814.23,49.23 947.45,806.77,48.97"/>
        <lane id=":63082002_4_1" index="1" disallow="tram rail_urban rail rail_electric rail_fast ship" speed="22.35" length="28.22" width="3.66" shape="975.62,810.70,49.23 948.41,803.23,48.97"/>
    </edge>
    <edge id=":63082003_0" function="internal">
        <lane id=":63082003_0_0" index="0" disallow="tram rail_urban rail rail_electric rail_fast ship" speed="22.35" length="28.18" width="3.66" shape="1343.84,911.26,50.80 1316.48,904.50,50.59"/>
        <lane id=":63082003_0_1" index="1" disallow="tram rail_urban rail rail_electric rail_fast ship" speed="22.35" length="28.18" width="3.66" shape="1344.77,907.72,50.80 1317.42,900.96,50.59"/>
    </edge>
    <edge id=":63082003_2" function="internal">
        <lane id=":63082003_2_0" index="0" disallow="tram rail_urban rail rail_electric rail_fast ship" speed="11.00" length="29.21" width="3.66" shape="1345.70,904.18,50.80 1337.87,900.92,50.77 1333.11,896.23,50.74 1331.44,890.10,50.72 1332.85,882.54,50.69"/>
    </edge>
    <edge id=":63082003_3" function="internal">
        <lane id=":63082003_3_0" index="0" disallow="tram rail_urban rail rail_electric rail_fast ship" speed="7.60" length="13.23" width="3.66" shape="1340.26,885.25,50.70 1340.05,887.87,50.71 1341.36,890.13,50.72 1344.18,892.03,50.73 1348.51,893.55,50.74"/>
    </edge>
    <edge id=":63082003_4" function="internal">
        <lane id=":63082003_4_0" index="0" disallow="tram rail_urban rail rail_electric rail_fast ship" speed="8.95" length="31.40" width="3.66" shape="1340.26,885.25,50.70 1331.41,915.38,50.52"/>
    </edge>
    <edge id=":63082003_5" function="internal">
        <lane id=":63082003_5_0" index="0" disallow="tram rail_urban rail rail_electric rail_fast ship" speed="11.48" length="9.91" width="3.66" shape="1336.83,883.95,50.70 1333.01,892.63,50.66 1332.75,892.97,50.66"/>
    </edge>
    <edge id=":63082003_11" function="internal">
        <lane id=":63082003_11_0" index="0" disallow="tram rail_urban rail rail_electric rail_fast ship" speed="11.48" length="18.64" width="3.66" shape="1332.75,892.97,50.66 1328.51,898.36,50.64 1323.31,901.13,50.61 1317.42,900.96,50.59"/>
    </edge>
    <edge id=":63082003_6" function="internal">
        <lane id=":63082003_6_0" index="0" disallow="tram rail_urban rail rail_electric rail_fast ship" speed="22.35" length="28.17" width="3.66" shape="1321.33,886.15,50.72 1348.51,893.55,50.74"/>
        <lane id=":63082003_6_1" index="1" disallow="tram rail_urban rail rail_electric rail_fast ship" speed="22.35" length="28.17" width="3.66" shape="1320.39,889.69,50.72 1347.57,897.09,50.74"/>
    </edge>
    <edge id=":63082003_8" function="internal">
        <lane id=":63082003_8_0" index="0" disallow="tram rail_urban rail rail_electric rail_fast ship" speed="11.21" length="28.69" width="3.66" shape="1319.46,893.23,50.72 1326.50,896.36,50.67 1330.84,901.10,50.62 1332.48,907.44,50.58 1331.41,915.38,50.52"/>
    </edge>
    <edge id=":63082003_9" function="internal">
        <lane id=":63082003_9_0" index="0" disallow="tram rail_urban rail rail_electric rail_fast ship" speed="8.95" length="32.04" width="3.66" shape="1324.11,913.36,50.53 1332.85,882.54,50.69"/>
    </edge>
    <edge id=":63082003_10" function="internal">
        <lane id=":63082003_10_0" index="0" disallow="tram rail_urban rail rail_electric rail_fast ship" speed="11.41" length="10.86" width="3.66" shape="1327.64,914.33,50.53 1330.99,905.37,50.60 1331.77,904.34,50.60"/>
    </edge>
    <edge id=":63082003_12" function="internal">
        <lane id=":63082003_12_0" index="0" disallow="tram rail_urban rail rail_electric rail_fast ship" speed="11.41" length="18.87" width="3.66" shape="1331.77,904.34,50.60 1335.43,899.51,50.65 1340.96,896.75,50.69 1347.57,897.09,50.74"/>
    </edge>
    <edge id=":834845345#1-AddedOffRampNode_0" function="internal">
        <lane id=":834845345#1-AddedOffRampNode_0_0" index="0" disallow="tram rail_urban rail rail_electric rail_fast ship" speed="21.23" length="25.49" width="3.66" shape="839.29,756.31,48.73 846.63,757.76,48.76 853.72,758.51,48.78 859.90,759.03,48.80 864.52,759.76,48.82"/>
    </edge>
    <edge id=":834845345#1-AddedOffRampNode_1" function="internal">
        <lane id=":834845345#1-AddedOffRampNode_1_0" index="0" disallow="tram rail_urban rail rail_electric rail_fast ship" speed="22.35" length="25.24" width="3.66" shape="839.29,756.31,48.73 863.54,763.36,48.80"/>
        <lane id=":834845345#1-AddedOffRampNode_1_1" index="1" disallow="tram rail_urban rail rail_electric rail_fast ship" speed="22.35" length="25.24" width="3.66" shape="838.35,759.85,48.73 862.58,766.89,48.80"/>
    </edge>
    <edge id=":J3_0" function="internal">
        <lane id=":J3_0_0" index="0" disallow="tram rail_urban rail rail_electric rail_fast ship" speed="21.23" length="9.17" width="3.66" shape="1008.29,797.57,49.11 1017.09,800.15,49.25"/>
    </edge>
    <edge id=":J3_1" function="internal">
        <lane id=":J3_1_0" index="0" disallow="tram rail_urban rail rail_electric rail_fast ship" speed="22.35" length="9.15" width="3.66" shape="1007.27,801.42,49.23 1016.14,803.69,49.25"/>
        <lane id=":J3_1_1" index="1" disallow="tram rail_urban rail rail_electric rail_fast ship" speed="22.35" length="9.15" width="3.66" shape="1006.33,804.96,49.23 1015.19,807.23,49.25"/>
    </edge>
    <edge id=":J4_0" function="internal">
        <lane id=":J4_0_0" index="0" disallow="tram rail_urban rail rail_electric rail_fast ship" speed="22.35" length="72.43" width="3.66" shape="1082.41,817.62,49.52 1151.24,840.38,49.74"/>
        <lane id=":J4_0_1" index="1" disallow="tram rail_urban rail rail_electric rail_fast ship" speed="22.35" length="72.43" width="3.66" shape="1081.46,821.16,49.52 1151.24,840.38,49.74"/>
        <lane id=":J4_0_2" index="2" disallow="tram rail_urban rail rail_electric rail_fast ship" speed="22.35" length="72.43" width="3.66" shape="1080.51,824.70,49.52 1150.32,843.92,49.74"/>
    </edge>
    <edge id=":J5_0" function="internal">
        <lane id=":J5_0_0" index="0" disallow="tram rail_urban rail rail_electric rail_fast ship" speed="22.35" length="0.30" width="3.66" shape="1121.81,854.14,49.76 1121.52,854.06,49.76"/>
        <lane id=":J5_0_1" index="1" disallow="tram rail_urban rail rail_electric rail_fast ship" speed="22.35" length="0.30" width="3.66" shape="1122.76,850.60,49.76 1122.47,850.52,49.76"/>
    </edge>
    <edge id=":gneJ11_0" function="internal">
        <lane id=":gneJ11_0_0" index="0" disallow="tram rail_urban rail rail_electric rail_fast ship" speed="12.54" length="15.14" width="3.66" shape="1332.10,872.84,50.77 1334.23,869.72,50.87 1336.41,866.59,50.97 1338.40,863.36,51.07 1339.95,859.95,51.17"/>
    </edge>
    <edge id=":gneJ11_1" function="internal">
        <lane id=":gneJ11_1_0" index="0" disallow="tram rail_urban rail rail_electric rail_fast ship" speed="11.18" length="16.23" width="3.66" shape="1335.35,875.51,50.74 1339.95,859.95,51.17"/>
    </edge>
    <edge id=":gneJ12_0" function="internal">
        <lane id=":gneJ12_0_0" index="0" disallow="tram rail_urban rail rail_electric rail_fast ship" speed="14.53" length="8.74" width="3.66" shape="1312.78,907.00,50.52 1310.67,905.56,50.54 1309.49,904.09,50.55 1308.26,902.77,50.56 1305.99,901.75,50.58"/>
    </edge>
    <edge id=":gneJ12_1" function="internal">
        <lane id=":gneJ12_1_0" index="0" disallow="tram rail_urban rail rail_electric rail_fast ship" speed="22.35" length="7.95" width="3.66" shape="1313.66,903.75,50.59 1305.99,901.75,50.58"/>
        <lane id=":gneJ12_1_1" index="1" disallow="tram rail_urban rail rail_electric rail_fast ship" speed="22.35" length="7.95" width="3.66" shape="1314.62,900.22,50.59 1306.91,898.20,50.58"/>
    </edge>
    <edge id=":gneJ14_0" function="internal">
        <lane id=":gneJ14_0_0" index="0" disallow="tram rail_urban rail rail_electric rail_fast ship" speed="6.71" length="17.45" width="3.66" shape="1313.46,950.33,50.32 1314.34,944.73,50.29 1314.38,940.29,50.27 1314.28,936.54,50.26 1314.73,932.98,50.24"/>
    </edge>
    <edge id=":gneJ14_1" function="internal">
        <lane id=":gneJ14_1_0" index="0" disallow="tram rail_urban rail rail_electric rail_fast ship" speed="6.71" length="17.06" width="3.66" shape="1313.46,950.33,50.32 1318.59,934.01,50.32"/>
        <lane id=":gneJ14_1_1" index="1" disallow="tram rail_urban rail rail_electric rail_fast ship" speed="6.71" length="17.06" width="3.66" shape="1317.01,951.20,50.32 1322.13,934.96,50.32"/>
    </edge>
    <edge id=":gneJ16_0" function="internal">
        <lane id=":gneJ16_0_0" index="0" disallow="tram rail_urban rail rail_electric rail_fast ship" speed="18.12" length="13.67" width="3.66" shape="1425.45,933.82,51.00 1421.25,933.21,50.98 1418.03,933.53,50.97 1415.13,933.93,50.96 1411.89,933.60,50.95"/>
    </edge>
    <edge id=":gneJ16_1" function="internal">
        <lane id=":gneJ16_1_0" index="0" disallow="tram rail_urban rail rail_electric rail_fast ship" speed="22.35" length="13.44" width="3.66" shape="1425.45,933.82,51.00 1412.88,929.95,51.00"/>
        <lane id=":gneJ16_1_1" index="1" disallow="tram rail_urban rail rail_electric rail_fast ship" speed="22.35" length="13.44" width="3.66" shape="1426.43,930.30,51.00 1413.84,926.42,51.00"/>
        <lane id=":gneJ16_1_2" index="2" disallow="tram rail_urban rail rail_electric rail_fast ship" speed="22.35" length="13.44" width="3.66" shape="1426.43,930.30,51.00 1422.74,928.62,51.00 1420.61,926.58,51.00 1418.49,924.55,51.00 1414.80,922.89,51.00"/>
    </edge>
    <edge id=":gneJ17_0" function="internal">
        <lane id=":gneJ17_0_0" index="0" disallow="tram rail_urban rail rail_electric rail_fast ship" speed="10.30" length="11.73" width="3.66" shape="1334.11,921.09,50.48 1331.86,923.48,50.44 1329.97,925.38,50.41 1328.43,927.46,50.38 1327.26,930.42,50.35"/>
    </edge>
    <edge id=":gneJ17_1" function="internal">
        <lane id=":gneJ17_1_0" index="0" disallow="tram rail_urban rail rail_electric rail_fast ship" speed="6.71" length="11.72" width="3.66" shape="1330.38,919.12,50.47 1327.26,930.42,50.35"/>
    </edge>
    <edge id=":gneJ18_0" function="internal">
        <lane id=":gneJ18_0_0" index="0" disallow="tram rail_urban rail rail_electric rail_fast ship" speed="22.35" length="22.58" width="3.66" shape="1372.75,899.94,50.85 1394.61,905.63,50.89"/>
        <lane id=":gneJ18_0_1" index="1" disallow="tram rail_urban rail rail_electric rail_fast ship" speed="22.35" length="22.58" width="3.66" shape="1371.81,903.48,50.85 1393.65,909.15,50.89"/>
    </edge>
    <edge id=":gneJ48_0" function="internal">
        <lane id=":gneJ48_0_0" index="0" disallow="tram rail_urban rail rail_electric rail_fast ship" speed="11.18" length="8.81" width="3.66" shape="1346.90,822.65,51.99 1347.72,825.17,52.00 1348.80,826.75,52.01 1349.79,828.34,52.02 1350.36,830.89,52.03"/>
        <lane id=":gneJ48_0_1" index="1" disallow="tram rail_urban rail rail_electric rail_fast ship" speed="11.18" length="8.81" width="3.66" shape="1346.90,822.65,51.99 1347.14,825.15,52.00 1346.96,826.89,52.01 1346.71,828.63,52.02 1346.71,831.17,52.03"/>
    </edge>
    <edge id=":gneJ66_0" function="internal">
        <lane id=":gneJ66_0_0" index="0" disallow="tram rail_urban rail rail_electric rail_fast ship" speed="20.12" length="8.79" width="3.66" shape="983.11,752.62,49.00 982.42,755.11,48.95 982.26,756.88,48.92 982.33,758.69,48.89 982.36,761.31,48.84"/>
    </edge>
    <edge id=":gneJ66_1" function="internal">
        <lane id=":gneJ66_1_0" index="0" disallow="tram rail_urban rail rail_electric rail_fast ship" speed="20.12" length="11.61" width="3.66" shape="979.64,751.46,49.00 976.12,762.52,49.06"/>
    </edge>
    <edge id=":gneJ71_0" function="internal">
        <lane id=":gneJ71_0_0" index="0" disallow="tram rail_urban rail rail_electric rail_fast ship" speed="20.12" length="15.51" width="3.66" shape="966.60,759.15,49.03 968.69,756.41,49.01 970.38,753.58,49.00 971.93,750.12,48.98 973.62,745.44,48.96"/>
    </edge>
    <edge id=":gneJ71_1" function="internal">
        <lane id=":gneJ71_1_0" index="0" disallow="tram rail_urban rail rail_electric rail_fast ship" speed="20.12" length="16.33" width="3.66" shape="970.89,761.72,49.06 977.09,746.61,48.96"/>
    </edge>
    <edge id=":gneJ74_0" function="internal">
        <lane id=":gneJ74_0_0" index="0" disallow="tram rail_urban rail rail_electric rail_fast ship" speed="18.12" length="14.12" width="3.66" shape="1232.04,857.53,50.18 1245.70,861.11,50.19"/>
    </edge>
    <edge id=":gneJ74_1" function="internal">
        <lane id=":gneJ74_1_0" index="0" disallow="tram rail_urban rail rail_electric rail_fast ship" speed="22.35" length="14.10" width="3.66" shape="1231.07,861.06,50.18 1244.65,864.87,50.31"/>
        <lane id=":gneJ74_1_1" index="1" disallow="tram rail_urban rail rail_electric rail_fast ship" speed="22.35" length="14.10" width="3.66" shape="1230.09,864.58,50.18 1243.67,868.39,50.31"/>
        <lane id=":gneJ74_1_2" index="2" disallow="tram rail_urban rail rail_electric rail_fast ship" speed="22.35" length="14.10" width="3.66" shape="1229.12,868.11,50.18 1242.69,871.92,50.31"/>
    </edge>
    <edge id=":gneJ77_0" function="internal">
        <lane id=":gneJ77_0_0" index="0" disallow="tram rail_urban rail rail_electric rail_fast ship" speed="22.35" length="22.89" width="3.66" shape="1190.26,850.61,49.98 1196.38,851.52,50.04 1201.25,851.28,50.08 1206.39,851.14,50.13 1213.34,852.36,50.19"/>
        <lane id=":gneJ77_0_1" index="1" disallow="tram rail_urban rail rail_electric rail_fast ship" speed="22.35" length="22.89" width="3.66" shape="1190.26,850.61,49.98 1212.37,855.89,50.19"/>
        <lane id=":gneJ77_0_2" index="2" disallow="tram rail_urban rail rail_electric rail_fast ship" speed="22.35" length="22.89" width="3.66" shape="1189.34,854.15,49.98 1211.39,859.41,50.19"/>
        <lane id=":gneJ77_0_3" index="3" disallow="tram rail_urban rail rail_electric rail_fast ship" speed="22.35" length="22.89" width="3.66" shape="1189.34,854.15,49.98 1195.16,856.17,50.04 1199.38,858.36,50.08 1203.84,860.64,50.13 1210.42,862.94,50.19"/>
    </edge>

    <edge id="-638636924#1.9" from="gneJ48" to="63082003" priority="1" type="highway.service" shape="1344.96,832.26,52.01 1345.98,845.86,51.69 1343.01,859.00,51.22 1340.28,867.43,50.95 1338.60,873.11,50.82 1335.06,883.47,50.70">
        <lane id="-638636924#1.9_0" index="0" disallow="tram rail_urban rail rail_electric rail_fast ship" speed="11.18" length="55.25" width="3.66" shape="1350.36,830.89,52.03 1351.52,846.27,51.69 1348.31,860.45,51.22 1345.52,869.05,50.95 1343.83,874.78,50.82 1340.26,885.25,50.70">
            <param key="origId" value="638636924"/>
        </lane>
        <lane id="-638636924#1.9_1" index="1" disallow="tram rail_urban rail rail_electric rail_fast ship" speed="11.18" length="55.25" width="3.66" shape="1346.71,831.17,52.03 1347.83,846.00,51.69 1344.78,859.48,51.22 1342.03,867.97,50.95 1340.34,873.67,50.82 1336.83,883.95,50.70">
            <param key="origId" value="638636924"/>
        </lane>
    </edge>
    <edge id="-660891910#1" from="63082003" to="gneJ17" priority="1" type="highway.service" shape="1329.65,914.89,50.52 1326.02,928.02,50.34">
        <lane id="-660891910#1_0" index="0" disallow="tram rail_urban rail rail_electric rail_fast ship" speed="6.71" length="3.88" width="3.66" shape="1331.41,915.38,50.52 1330.38,919.12,50.47">
            <param key="origId" value="660891910"/>
        </lane>
        <param key="origTo" value="6018689145"/>
    </edge>
    <edge id="-660891910#1.13" from="gneJ17" to="cluster_6018689145_6018699110" priority="1" type="highway.service" shape="1326.02,928.02,50.34 1313.48,973.36,50.49">
        <lane id="-660891910#1.13_0" index="0" disallow="tram rail_urban rail rail_electric rail_fast ship" speed="6.71" length="49.15" width="3.66" shape="1327.26,930.42,50.35 1314.15,977.78,50.50">
            <param key="origId" value="660891910"/>
        </lane>
        <param key="origTo" value="6018689145"/>
    </edge>
    <edge id="-8868160#0" from="gneJ71" to="gneJ52" name="Airport Road" priority="11" type="highway.secondary" shape="978.82,747.20,48.96 988.29,719.22,48.98 990.33,705.41,49.11 990.73,692.68,49.26 991.16,661.44,49.57 990.90,603.29,49.89 989.99,533.73,50.24">
        <lane id="-8868160#0_0" index="0" disallow="tram rail_urban rail rail_electric rail_fast ship" speed="20.12" length="213.96" width="3.66" acceleration="1" shape="973.62,745.44,48.96 982.93,717.93,48.98 984.85,704.92,49.11 985.24,692.56,49.26 985.67,661.41,49.57 985.41,603.34,49.89 984.50,533.80,50.24">
            <param key="origId" value="8868160"/>
        </lane>
        <lane id="-8868160#0_1" index="1" disallow="tram rail_urban rail rail_electric rail_fast ship" speed="20.12" length="213.96" width="3.66" shape="977.09,746.61,48.96 986.50,718.79,48.98 988.50,705.25,49.11 988.90,692.64,49.26 989.33,661.43,49.57 989.07,603.31,49.89 988.16,533.75,50.24">
            <param key="origId" value="8868160"/>
        </lane>
    </edge>
    <edge id="115872656#10" from="64208332" to="gneJ16" name="McFarland Boulevard" priority="12" type="highway.primary" spreadType="center" shape="1531.04,961.03,51.04 1425.94,932.06,51.00">
        <lane id="115872656#10_0" index="0" disallow="tram rail_urban rail rail_electric rail_fast ship" speed="22.35" length="114.56" width="3.66" shape="1535.90,964.27,51.04 1425.45,933.82,51.00">
            <param key="origId" value="115872656"/>
        </lane>
        <lane id="115872656#10_1" index="1" disallow="tram rail_urban rail rail_electric rail_fast ship" speed="22.35" length="114.56" width="3.66" shape="1536.87,960.74,51.04 1426.43,930.30,51.00">
            <param key="origId" value="115872656"/>
        </lane>
        <param key="ref" value="US 82"/>
    </edge>
    <edge id="115872656#10.14" from="gneJ16" to="63082003" name="McFarland Boulevard" priority="12" type="highway.primary" spreadType="center" shape="1415.14,926.77,51.00 1346.14,908.09,50.80">
        <lane id="115872656#10.14_0" index="0" disallow="tram rail_urban rail rail_electric rail_fast ship" speed="22.35" length="71.55" width="3.66" shape="1412.88,929.95,51.00 1343.84,911.26,50.80">
            <param key="origId" value="115872656"/>
        </lane>
        <lane id="115872656#10.14_1" index="1" disallow="tram rail_urban rail rail_electric rail_fast ship" speed="22.35" length="71.55" width="3.66" shape="1413.84,926.42,51.00 1344.77,907.72,50.80">
            <param key="origId" value="115872656"/>
        </lane>
        <lane id="115872656#10.14_2" index="2" disallow="tram rail_urban rail rail_electric rail_fast ship" speed="22.35" length="71.55" width="3.66" shape="1414.80,922.89,51.00 1345.70,904.18,50.80">
            <param key="origId" value="115872656"/>
        </lane>
        <param key="ref" value="US 82"/>
    </edge>
    <edge id="115872656#11" from="63082003" to="gneJ12" name="McFarland Boulevard" priority="12" type="highway.primary" spreadType="center" shape="1316.95,902.73,50.59 1309.91,900.87,50.60">
        <lane id="115872656#11_0" index="0" disallow="tram rail_urban rail rail_electric rail_fast ship" speed="22.35" length="2.90" width="3.66" shape="1316.48,904.50,50.59 1313.66,903.75,50.59">
            <param key="origId" value="115872656"/>
        </lane>
        <lane id="115872656#11_1" index="1" disallow="tram rail_urban rail rail_electric rail_fast ship" speed="22.35" length="2.90" width="3.66" shape="1317.42,900.96,50.59 1314.62,900.22,50.59">
            <param key="origId" value="115872656"/>
        </lane>
        <param key="ref" value="US 82"/>
    </edge>
    <edge id="115872656#11.5" from="gneJ12" to="J5" name="McFarland Boulevard" priority="12" type="highway.primary" spreadType="center" shape="1309.91,900.87,50.60 1243.62,883.76,50.21 1197.33,872.56,49.99 1122.14,852.33,49.76">
        <lane id="115872656#11.5_0" index="0" disallow="tram rail_urban rail rail_electric rail_fast ship" speed="22.35" length="190.23" width="3.66" shape="1305.99,901.75,50.58 1243.18,885.54,50.21 1196.88,874.33,49.99 1121.81,854.14,49.76">
            <param key="origId" value="115872656"/>
        </lane>
        <lane id="115872656#11.5_1" index="1" disallow="tram rail_urban rail rail_electric rail_fast ship" speed="22.35" length="190.23" width="3.66" shape="1306.91,898.20,50.58 1244.06,881.98,50.21 1197.78,870.79,49.99 1122.76,850.60,49.76">
            <param key="origId" value="115872656"/>
        </lane>
        <param key="ref" value="US 82"/>
    </edge>
    <edge id="115872656#11.5.193" from="J5" to="6018699112" name="McFarland Boulevard" priority="12" type="highway.primary" spreadType="center" shape="1122.14,852.33,49.76 1117.80,851.16,49.75">
        <lane id="115872656#11.5.193_0" index="0" disallow="tram rail_urban rail rail_electric rail_fast ship" speed="22.35" length="4.34" width="3.66" shape="1121.52,854.06,49.76 1117.32,852.93,49.75">
            <param key="origId" value="115872656"/>
        </lane>
        <lane id="115872656#11.5.193_1" index="1" disallow="tram rail_urban rail rail_electric rail_fast ship" speed="22.35" length="4.34" width="3.66" shape="1122.47,850.52,49.76 1118.28,849.39,49.75">
            <param key="origId" value="115872656"/>
        </lane>
        <param key="ref" value="US 82"/>
    </edge>
    <edge id="115872656#13.8" from="63082002" to="7593884113" name="McFarland Boulevard" priority="12" type="highway.primary" spreadType="center" shape="947.93,805.00,48.97 558.02,699.39,48.97">
        <lane id="115872656#13.8_0" index="0" disallow="tram rail_urban rail rail_electric rail_fast ship" speed="22.35" length="403.96" width="3.66" shape="947.45,806.77,48.97 557.54,701.16,48.97">
            <param key="origId" value="115872656"/>
        </lane>
        <lane id="115872656#13.8_1" index="1" disallow="tram rail_urban rail rail_electric rail_fast ship" speed="22.35" length="403.96" width="3.66" shape="948.41,803.23,48.97 558.50,697.62,48.97">
            <param key="origId" value="115872656"/>
        </lane>
        <param key="origFrom" value="64493785"/>