<?xml version="1.0" encoding="UTF-8"?>

<!-- generated on 2023-02-04 17:44:32 by Eclipse SUMO netedit Version 1.10.0
<configuration xmlns:xsi="http://www.w3.org/2001/XMLSchema-instance" xsi:noNamespaceSchemaLocation="http://sumo.dlr.de/xsd/netconvertConfiguration.xsd">

    <input>
        <sumo-net-file value="/Users/max/Development/airport-harper-sumo/sumo-xml/simplified_reworked.net.xml"/>
    </input>

    <output>
        <output-file value="/Users/max/Development/airport-harper-sumo/sumo-xml/simplified_reworked.net.xml"/>
        <output.street-names value="true"/>
    </output>

    <processing>
        <geometry.min-radius.fix.railways value="false"/>
        <geometry.max-grade.fix value="false"/>
        <offset.disable-normalization value="true"/>
        <lefthand value="false"/>
    </processing>

    <junctions>
        <no-turnarounds value="true"/>
        <junctions.corner-detail value="5"/>
        <junctions.limit-turn-speed value="5.5"/>
        <rectangular-lane-cut value="false"/>
    </junctions>

    <pedestrian>
        <walkingareas value="false"/>
    </pedestrian>

    <report>
        <aggregate-warnings value="5"/>
    </report>

</configuration>
-->

<net version="1.9" junctionCornerDetail="5" limitTurnSpeed="5.50" xmlns:xsi="http://www.w3.org/2001/XMLSchema-instance" xsi:noNamespaceSchemaLocation="http://sumo.dlr.de/xsd/net_file.xsd">

    <location netOffset="-441419.41,-3676592.75" convBoundary="558.02,533.69,1971.65,1177.48" origBoundary="-87.628748,33.226723,-87.598600,33.248134" projParameter="+proj=utm +zone=16 +ellps=WGS84 +datum=WGS84 +units=m +no_defs"/>

    <type id="highway.bridleway" priority="1" numLanes="1" speed="2.78" allow="pedestrian" oneway="1" width="2.00"/>
    <type id="highway.bus_guideway" priority="1" numLanes="1" speed="27.78" allow="bus" oneway="1"/>
    <type id="highway.cycleway" priority="1" numLanes="1" speed="8.33" allow="bicycle" oneway="1" width="1.00"/>
    <type id="highway.footway" priority="1" numLanes="1" speed="2.78" allow="pedestrian" oneway="1" width="2.00"/>
    <type id="highway.ford" priority="1" numLanes="1" speed="2.78" allow="army" oneway="1"/>
    <type id="highway.living_street" priority="2" numLanes="1" speed="2.78" disallow="tram rail_urban rail rail_electric rail_fast ship" oneway="1"/>
    <type id="highway.motorway" priority="14" numLanes="2" speed="39.44" allow="private emergency authority army vip passenger hov taxi bus coach delivery truck trailer motorcycle evehicle custom1 custom2" oneway="1"/>
    <type id="highway.motorway_link" priority="9" numLanes="1" speed="22.22" allow="private emergency authority army vip passenger hov taxi bus coach delivery truck trailer motorcycle evehicle custom1 custom2" oneway="1"/>
    <type id="highway.path" priority="1" numLanes="1" speed="2.78" allow="pedestrian bicycle" oneway="1" width="2.00"/>
    <type id="highway.pedestrian" priority="1" numLanes="1" speed="2.78" allow="pedestrian" oneway="1" width="2.00"/>
    <type id="highway.primary" priority="12" numLanes="2" speed="27.78" disallow="tram rail_urban rail rail_electric rail_fast ship" oneway="1"/>
    <type id="highway.primary_link" priority="7" numLanes="1" speed="22.22" disallow="tram rail_urban rail rail_electric rail_fast ship" oneway="1"/>
    <type id="highway.raceway" priority="15" numLanes="2" speed="83.33" allow="vip" oneway="1"/>
    <type id="highway.residential" priority="3" numLanes="1" speed="13.89" disallow="tram rail_urban rail rail_electric rail_fast ship" oneway="1"/>
    <type id="highway.secondary" priority="-1" numLanes="1" speed="13.89" oneway="1" width="-1.00"/>
    <type id="highway.secondary_link" priority="6" numLanes="1" speed="22.22" disallow="tram rail_urban rail rail_electric rail_fast ship" oneway="1"/>
    <type id="highway.service" priority="1" numLanes="1" speed="5.56" allow="pedestrian delivery bicycle" oneway="1"/>
    <type id="highway.stairs" priority="1" numLanes="1" speed="1.39" allow="pedestrian" oneway="1" width="2.00"/>
    <type id="highway.step" priority="1" numLanes="1" speed="1.39" allow="pedestrian" oneway="1" width="2.00"/>
    <type id="highway.steps" priority="1" numLanes="1" speed="1.39" allow="pedestrian" oneway="1" width="2.00"/>
    <type id="highway.tertiary" priority="10" numLanes="1" speed="22.22" disallow="tram rail_urban rail rail_electric rail_fast ship" oneway="1"/>
    <type id="highway.tertiary_link" priority="5" numLanes="1" speed="22.22" disallow="tram rail_urban rail rail_electric rail_fast ship" oneway="1"/>
    <type id="highway.track" priority="1" numLanes="1" speed="5.56" allow="pedestrian motorcycle moped bicycle" oneway="1"/>
    <type id="highway.trunk" priority="13" numLanes="2" speed="27.78" disallow="pedestrian bicycle tram rail_urban rail rail_electric rail_fast ship" oneway="1"/>
    <type id="highway.trunk_link" priority="8" numLanes="1" speed="22.22" disallow="pedestrian bicycle tram rail_urban rail rail_electric rail_fast ship" oneway="1"/>
    <type id="highway.unclassified" priority="4" numLanes="1" speed="13.89" disallow="tram rail_urban rail rail_electric rail_fast ship" oneway="1"/>
    <type id="highway.unsurfaced" priority="1" numLanes="1" speed="8.33" disallow="tram rail_urban rail rail_electric rail_fast ship" oneway="1"/>
    <type id="railway.highspeed" priority="21" numLanes="1" speed="69.44" allow="rail_fast" oneway="1"/>
    <type id="railway.light_rail" priority="19" numLanes="1" speed="27.78" allow="rail_urban" oneway="1"/>
    <type id="railway.preserved" priority="16" numLanes="1" speed="27.78" allow="rail" oneway="1"/>
    <type id="railway.rail" priority="20" numLanes="1" speed="44.44" allow="rail" oneway="1"/>
    <type id="railway.subway" priority="18" numLanes="1" speed="27.78" allow="rail_urban" oneway="1"/>
    <type id="railway.tram" priority="17" numLanes="1" speed="13.89" allow="tram" oneway="1"/>

    <edge id=":6018663506_0" function="internal">
        <lane id=":6018663506_0_0" index="0" disallow="tram rail_urban rail rail_electric rail_fast ship" speed="22.35" length="17.55" width="3.66" shape="1870.72,1033.20,50.71 1887.62,1037.93,50.66"/>
        <lane id=":6018663506_0_1" index="1" disallow="tram rail_urban rail rail_electric rail_fast ship" speed="22.35" length="17.55" width="3.66" shape="1869.76,1036.74,50.71 1886.65,1041.46,50.66"/>
    </edge>
    <edge id=":6018664060_0" function="internal">
        <lane id=":6018664060_0_0" index="0" disallow="tram rail_urban rail rail_electric rail_fast ship" speed="22.35" length="22.81" width="3.66" shape="1900.19,1061.17,50.50 1894.10,1060.13,50.53 1889.29,1060.12,50.55 1884.21,1060.02,50.57 1877.32,1058.70,50.60"/>
        <lane id=":6018664060_0_1" index="1" disallow="tram rail_urban rail rail_electric rail_fast ship" speed="22.35" length="22.81" width="3.66" shape="1900.19,1061.17,50.50 1878.30,1055.17,50.60"/>
        <lane id=":6018664060_0_2" index="2" disallow="tram rail_urban rail rail_electric rail_fast ship" speed="22.35" length="22.81" width="3.66" shape="1901.13,1057.63,50.50 1879.28,1051.64,50.60"/>
    </edge>
    <edge id=":6018664063_0" function="internal">
        <lane id=":6018664063_0_0" index="0" disallow="tram rail_urban rail rail_electric rail_fast ship" speed="22.35" length="0.30" width="3.66" shape="1842.24,1025.44,50.98 1842.54,1025.52,50.98"/>
        <lane id=":6018664063_0_1" index="1" disallow="tram rail_urban rail rail_electric rail_fast ship" speed="22.35" length="0.30" width="3.66" shape="1841.29,1028.98,50.98 1841.57,1029.06,50.98"/>
    </edge>
    <edge id=":6018664066_0" function="internal">
        <lane id=":6018664066_0_0" index="0" disallow="tram rail_urban rail rail_electric rail_fast ship" speed="22.35" length="11.55" width="3.66" shape="1850.58,1051.30,50.81 1839.41,1048.53,50.89"/>
        <lane id=":6018664066_0_1" index="1" disallow="tram rail_urban rail rail_electric rail_fast ship" speed="22.35" length="11.55" width="3.66" shape="1851.56,1047.77,50.81 1840.35,1044.99,50.89"/>
        <lane id=":6018664066_0_2" index="2" disallow="tram rail_urban rail rail_electric rail_fast ship" speed="22.35" length="11.55" width="3.66" shape="1852.54,1044.24,50.81 1841.29,1041.45,50.89"/>
    </edge>
    <edge id=":6018699112_0" function="internal">
        <lane id=":6018699112_0_0" index="0" disallow="tram rail_urban rail rail_electric rail_fast ship" speed="22.35" length="36.34" width="3.66" shape="1117.32,852.93,49.75 1082.28,843.28,49.62"/>
        <lane id=":6018699112_0_1" index="1" disallow="tram rail_urban rail rail_electric rail_fast ship" speed="22.35" length="36.34" width="3.66" shape="1118.28,849.39,49.75 1083.24,839.75,49.62"/>
    </edge>
    <edge id=":6018699112_2" function="internal">
        <lane id=":6018699112_2_0" index="0" disallow="tram rail_urban rail rail_electric rail_fast ship" speed="22.35" length="36.61" width="3.66" shape="1118.28,849.39,49.75 1109.58,846.34,49.69 1099.49,842.07,49.62 1090.31,838.05,49.55 1084.33,835.73,49.51"/>
    </edge>
    <edge id=":6018699306_0" function="internal">
        <lane id=":6018699306_0_0" index="0" speed="18.12" length="22.85" width="3.66" shape="1639.07,992.33,51.80 1632.14,991.06,51.72 1625.92,990.78,51.65 1620.61,990.76,51.59 1616.37,990.29,51.54"/>
    </edge>
    <edge id=":6018699306_1" function="internal">
        <lane id=":6018699306_1_0" index="0" disallow="tram rail_urban rail rail_electric rail_fast ship" speed="22.35" length="22.54" width="3.66" shape="1639.07,992.33,51.80 1617.32,986.55,51.59"/>
        <lane id=":6018699306_1_1" index="1" disallow="tram rail_urban rail rail_electric rail_fast ship" speed="22.35" length="22.54" width="3.66" shape="1640.04,988.80,51.80 1618.22,983.00,51.59"/>
    </edge>
    <edge id=":63082002_0" function="internal">
        <lane id=":63082002_0_0" index="0" speed="11.45" length="31.64" width="3.66" shape="976.66,806.76,49.21 968.48,803.28,49.19 963.57,798.14,49.17 961.92,791.33,49.16 963.53,782.85,49.14"/>
    </edge>
    <edge id=":63082002_1" function="internal">
        <lane id=":63082002_1_0" index="0" disallow="tram rail_urban rail rail_electric rail_fast ship" speed="11.78" length="30.71" width="3.66" shape="968.97,784.74,49.14 965.01,794.20,49.08 960.26,800.43,49.04 954.73,803.44,49.00 948.41,803.23,48.97"/>
    </edge>
    <edge id=":63082002_2" function="internal">
        <lane id=":63082002_2_0" index="0" disallow="tram rail_urban rail rail_electric rail_fast ship" speed="22.35" length="28.15" width="3.66" shape="952.58,787.83,49.12 980.00,794.18,49.17"/>
        <lane id=":63082002_2_1" index="1" disallow="tram rail_urban rail rail_electric rail_fast ship" speed="22.35" length="28.15" width="3.66" shape="951.62,791.37,49.12 979.06,797.72,49.17"/>
    </edge>
    <edge id=":63082002_4" function="internal">
        <lane id=":63082002_4_0" index="0" disallow="tram rail_urban rail rail_electric rail_fast ship" speed="22.35" length="28.22" width="3.66" shape="974.68,814.23,49.23 947.45,806.77,48.97"/>
        <lane id=":63082002_4_1" index="1" disallow="tram rail_urban rail rail_electric rail_fast ship" speed="22.35" length="28.22" width="3.66" shape="975.62,810.70,49.23 948.41,803.23,48.97"/>
    </edge>
    <edge id=":63082003_0" function="internal">
        <lane id=":63082003_0_0" index="0" disallow="tram rail_urban rail rail_electric rail_fast ship" speed="22.35" length="28.18" width="3.66" shape="1343.84,911.26,50.80 1316.48,904.50,50.59"/>
        <lane id=":63082003_0_1" index="1" disallow="tram rail_urban rail rail_electric rail_fast ship" speed="22.35" length="28.18" width="3.66" shape="1344.77,907.72,50.80 1317.42,900.96,50.59"/>
    </edge>
    <edge id=":63082003_2" function="internal">
        <lane id=":63082003_2_0" index="0" disallow="tram rail_urban rail rail_electric rail_fast ship" speed="11.00" length="29.21" width="3.66" shape="1345.70,904.18,50.80 1337.87,900.92,50.77 1333.11,896.23,50.74 1331.44,890.10,50.72 1332.85,882.54,50.69"/>
    </edge>
    <edge id=":63082003_3" function="internal">
        <lane id=":63082003_3_0" index="0" disallow="tram rail_urban rail rail_electric rail_fast ship" speed="7.60" length="13.23" width="3.66" shape="1340.26,885.25,50.70 1340.05,887.87,50.71 1341.36,890.13,50.72 1344.18,892.03,50.73 1348.51,893.55,50.74"/>
    </edge>
    <edge id=":63082003_4" function="internal">
        <lane id=":63082003_4_0" index="0" disallow="tram rail_urban rail rail_electric rail_fast ship" speed="8.95" length="31.40" width="3.66" shape="1340.26,885.25,50.70 1331.41,915.38,50.52"/>
    </edge>
    <edge id=":63082003_5" function="internal">
        <lane id=":63082003_5_0" index="0" disallow="tram rail_urban rail rail_electric rail_fast ship" speed="11.48" length="12.33" width="3.66" shape="1336.83,883.95,50.70 1333.01,892.63,50.66 1331.25,894.87,50.65"/>
    </edge>
    <edge id=":63082003_11" function="internal">
        <lane id=":63082003_11_0" index="0" disallow="tram rail_urban rail rail_electric rail_fast ship" speed="11.48" length="16.23" width="3.66" shape="1331.25,894.87,50.65 1328.51,898.36,50.64 1323.31,901.13,50.61 1317.42,900.96,50.59"/>
    </edge>
    <edge id=":63082003_6" function="internal">
        <lane id=":63082003_6_0" index="0" disallow="tram rail_urban rail rail_electric rail_fast ship" speed="22.35" length="28.17" width="3.66" shape="1321.33,886.15,50.72 1348.51,893.55,50.74"/>
        <lane id=":63082003_6_1" index="1" disallow="tram rail_urban rail rail_electric rail_fast ship" speed="22.35" length="28.17" width="3.66" shape="1320.39,889.69,50.72 1347.57,897.09,50.74"/>
    </edge>
    <edge id=":63082003_8" function="internal">
        <lane id=":63082003_8_0" index="0" disallow="tram rail_urban rail rail_electric rail_fast ship" speed="11.21" length="28.69" width="3.66" shape="1319.46,893.23,50.72 1326.50,896.36,50.67 1330.84,901.10,50.62 1332.48,907.44,50.58 1331.41,915.38,50.52"/>
    </edge>
    <edge id=":63082003_9" function="internal">
        <lane id=":63082003_9_0" index="0" disallow="tram rail_urban rail rail_electric rail_fast ship" speed="8.95" length="32.04" width="3.66" shape="1324.11,913.36,50.53 1332.85,882.54,50.69"/>
    </edge>
    <edge id=":63082003_10" function="internal">
        <lane id=":63082003_10_0" index="0" disallow="tram rail_urban rail rail_electric rail_fast ship" speed="11.41" length="13.49" width="3.66" shape="1327.64,914.33,50.53 1330.99,905.37,50.60 1333.36,902.25,50.62"/>
    </edge>
    <edge id=":63082003_12" function="internal">
        <lane id=":63082003_12_0" index="0" disallow="tram rail_urban rail rail_electric rail_fast ship" speed="11.41" length="16.23" width="3.66" shape="1333.36,902.25,50.62 1335.43,899.51,50.65 1340.96,896.75,50.69 1347.57,897.09,50.74"/>
    </edge>
    <edge id=":63082004_0" function="internal">
        <lane id=":63082004_0_0" index="0" speed="22.35" length="27.85" width="3.66" shape="1719.38,1013.68,51.68 1692.34,1007.03,51.71"/>
        <lane id=":63082004_0_1" index="1" speed="22.35" length="27.85" width="3.66" shape="1720.35,1010.15,51.68 1693.31,1003.50,51.71"/>
    </edge>
    <edge id=":63082004_2" function="internal">
        <lane id=":63082004_2_0" index="0" speed="12.95" length="31.86" width="3.66" shape="1721.32,1006.62,51.68 1714.82,1003.65,51.66 1710.20,998.42,51.64 1707.49,990.94,51.61 1706.66,981.20,51.58"/>
    </edge>
    <edge id=":63082004_3" function="internal">
        <lane id=":63082004_3_0" index="0" speed="9.15" length="15.00" width="3.66" shape="1714.47,981.29,51.67 1715.12,983.89,51.65 1717.25,986.21,51.62 1720.84,988.24,51.59 1725.61,989.88,51.55"/>
    </edge>
    <edge id=":63082004_4" function="internal">
        <lane id=":63082004_4_0" index="0" speed="15.65" length="36.72" width="3.66" shape="1714.47,981.29,51.67 1710.88,1017.83,51.58"/>
    </edge>
    <edge id=":63082004_5" function="internal">
        <lane id=":63082004_5_0" index="0" speed="11.25" length="34.20" width="3.66" shape="1710.81,981.25,51.67 1709.83,991.90,51.68 1707.09,999.71,51.69 1701.84,1003.85,51.70 1693.31,1003.50,51.71"/>
    </edge>
    <edge id=":63082004_12" function="internal">
        <lane id=":63082004_12_0" index="0" speed="9.15" length="0.32" width="3.66" shape="1725.61,989.88,51.55 1725.91,989.99,51.55"/>
    </edge>
    <edge id=":63082004_6" function="internal">
        <lane id=":63082004_6_0" index="0" disallow="tram rail_urban rail rail_electric rail_fast ship" speed="22.35" length="27.86" width="3.66" shape="1697.65,987.78,51.74 1724.84,993.85,51.60"/>
        <lane id=":63082004_6_1" index="1" disallow="tram rail_urban rail rail_electric rail_fast ship" speed="22.35" length="27.86" width="3.66" shape="1696.68,991.31,51.74 1723.87,997.38,51.60"/>
    </edge>
    <edge id=":63082004_8" function="internal">
        <lane id=":63082004_8_0" index="0" disallow="tram rail_urban rail rail_electric rail_fast ship" speed="12.60" length="30.00" width="3.66" shape="1695.70,994.84,51.74 1702.46,997.77,51.70 1707.24,1002.57,51.67 1710.05,1009.26,51.63 1710.88,1017.83,51.58"/>
    </edge>
    <edge id=":63082004_9" function="internal">
        <lane id=":63082004_9_0" index="0" speed="9.44" length="16.24" width="3.66" shape="1702.80,1017.77,51.58 1702.21,1014.18,51.61 1700.27,1011.19,51.64 1696.98,1008.80,51.67 1692.34,1007.03,51.71"/>
    </edge>
    <edge id=":63082004_10" function="internal">
        <lane id=":63082004_10_0" index="0" speed="15.65" length="36.78" width="3.66" shape="1702.80,1017.77,51.58 1706.66,981.20,51.58"/>
    </edge>
    <edge id=":63082004_11" function="internal">
        <lane id=":63082004_11_0" index="0" disallow="tram rail_urban rail rail_electric rail_fast ship" speed="10.98" length="32.88" width="3.66" shape="1706.46,1017.83,51.58 1707.35,1007.78,51.59 1710.03,1000.51,51.59 1715.28,996.79,51.59 1723.87,997.38,51.60"/>
    </edge>
    <edge id=":64208332_0" function="internal">
        <lane id=":64208332_0_0" index="0" disallow="tram rail_urban rail rail_electric rail_fast ship" speed="8.28" length="14.81" width="3.66" shape="1461.41,948.23,51.15 1456.24,947.17,51.08 1452.30,947.20,51.02 1449.60,948.33,50.98 1448.13,950.54,50.95"/>
    </edge>
    <edge id=":64208332_1" function="internal">
        <lane id=":64208332_1_0" index="0" disallow="tram rail_urban rail rail_electric rail_fast ship" speed="22.35" length="23.49" width="3.66" shape="1462.36,944.69,51.15 1439.94,937.68,51.04"/>
        <lane id=":64208332_1_1" index="1" disallow="tram rail_urban rail rail_electric rail_fast ship" speed="22.35" length="23.49" width="3.66" shape="1463.30,941.16,51.15 1440.88,934.14,51.04"/>
    </edge>
    <edge id=":64208332_3" function="internal">
        <lane id=":64208332_3_0" index="0" disallow="tram rail_urban rail rail_electric rail_fast ship" speed="7.69" length="13.26" width="3.66" shape="1459.24,916.74,51.12 1459.10,919.37,51.13 1460.45,921.64,51.15 1463.28,923.54,51.17 1467.59,925.07,51.19"/>
    </edge>
    <edge id=":64208332_4" function="internal">
        <lane id=":64208332_4_0" index="0" disallow="tram rail_urban rail rail_electric rail_fast ship" speed="22.35" length="23.48" width="3.66" shape="1444.85,919.22,51.12 1467.59,925.07,51.19"/>
        <lane id=":64208332_4_1" index="1" disallow="tram rail_urban rail rail_electric rail_fast ship" speed="22.35" length="23.48" width="3.66" shape="1443.91,922.76,51.12 1466.65,928.61,51.19"/>
    </edge>
    <edge id=":64208332_6" function="internal">
        <lane id=":64208332_6_0" index="0" disallow="tram rail_urban rail rail_electric rail_fast ship" speed="12.24" length="8.05" width="3.66" shape="1444.64,949.48,50.95 1447.62,942.00,51.00"/>
    </edge>
    <edge id=":64208332_7" function="internal">
        <lane id=":64208332_7_0" index="0" disallow="tram rail_urban rail rail_electric rail_fast ship" speed="12.24" length="25.63" width="3.66" shape="1447.62,942.00,51.00 1448.85,938.90,51.03 1453.92,931.90,51.09 1459.86,928.47,51.14 1466.65,928.61,51.19"/>
    </edge>
    <edge id=":64208359_0" function="internal">
        <lane id=":64208359_0_0" index="0" disallow="tram rail_urban rail rail_electric rail_fast ship" speed="22.35" length="18.15" width="3.66" shape="1538.47,943.98,51.43 1556.10,948.33,51.61"/>
        <lane id=":64208359_0_1" index="1" disallow="tram rail_urban rail rail_electric rail_fast ship" speed="22.35" length="18.15" width="3.66" shape="1537.53,947.52,51.43 1555.14,951.87,51.61"/>
    </edge>
    <edge id=":64483412_0" function="internal">
        <lane id=":64483412_0_0" index="0" disallow="tram rail_urban rail rail_electric rail_fast ship" speed="14.77" length="8.77" width="3.66" shape="1704.56,951.94,51.46 1705.15,949.39,51.46 1706.22,947.79,51.45 1707.27,946.19,51.45 1707.80,943.64,51.45"/>
        <lane id=":64483412_0_1" index="1" disallow="tram rail_urban rail rail_electric rail_fast ship" speed="14.77" length="8.77" width="3.66" shape="1707.75,952.12,51.46 1707.80,943.64,51.45"/>
    </edge>
    <edge id=":834845345#1-AddedOffRampNode_0" function="internal">
        <lane id=":834845345#1-AddedOffRampNode_0_0" index="0" disallow="tram rail_urban rail rail_electric rail_fast ship" speed="21.23" length="25.49" width="3.66" shape="839.29,756.31,48.73 846.63,757.76,48.76 853.72,758.52,48.78 859.90,759.03,48.80 864.52,759.76,48.82"/>
    </edge>
    <edge id=":834845345#1-AddedOffRampNode_1" function="internal">
        <lane id=":834845345#1-AddedOffRampNode_1_0" index="0" disallow="tram rail_urban rail rail_electric rail_fast ship" speed="22.35" length="25.24" width="3.66" shape="839.29,756.31,48.73 863.54,763.36,48.80"/>
        <lane id=":834845345#1-AddedOffRampNode_1_1" index="1" disallow="tram rail_urban rail rail_electric rail_fast ship" speed="22.35" length="25.24" width="3.66" shape="838.35,759.85,48.73 862.58,766.89,48.80"/>
    </edge>
    <edge id=":J1_0" function="internal">
        <lane id=":J1_0_0" index="0" speed="22.35" length="0.30" width="3.66" shape="1015.55,825.21,49.32 1015.27,825.13,49.30"/>
        <lane id=":J1_0_1" index="1" speed="22.35" length="0.30" width="3.66" shape="1016.51,821.67,49.32 1016.22,821.60,49.30"/>
    </edge>
    <edge id=":J3_0" function="internal">
        <lane id=":J3_0_0" index="0" disallow="tram rail_urban rail rail_electric rail_fast ship" speed="21.23" length="9.17" width="3.66" shape="1008.29,797.57,49.11 1017.09,800.15,49.25"/>
    </edge>
    <edge id=":J3_1" function="internal">
        <lane id=":J3_1_0" index="0" disallow="tram rail_urban rail rail_electric rail_fast ship" speed="22.35" length="9.15" width="3.66" shape="1007.27,801.42,49.23 1016.14,803.69,49.25"/>
        <lane id=":J3_1_1" index="1" disallow="tram rail_urban rail rail_electric rail_fast ship" speed="22.35" length="9.15" width="3.66" shape="1006.33,804.96,49.23 1015.19,807.23,49.25"/>
    </edge>
    <edge id=":J4_0" function="internal">
        <lane id=":J4_0_0" index="0" disallow="tram rail_urban rail rail_electric rail_fast ship" speed="22.35" length="72.43" width="3.66" shape="1082.41,817.62,49.52 1151.24,840.38,49.74"/>
        <lane id=":J4_0_1" index="1" disallow="tram rail_urban rail rail_electric rail_fast ship" speed="22.35" length="72.43" width="3.66" shape="1081.46,821.16,49.52 1151.24,840.38,49.74"/>
        <lane id=":J4_0_2" index="2" disallow="tram rail_urban rail rail_electric rail_fast ship" speed="22.35" length="72.43" width="3.66" shape="1080.51,824.70,49.52 1150.32,843.92,49.74"/>
    </edge>
    <edge id=":J5_0" function="internal">
        <lane id=":J5_0_0" index="0" disallow="tram rail_urban rail rail_electric rail_fast ship" speed="22.35" length="0.30" width="3.66" shape="1121.81,854.14,49.76 1121.52,854.06,49.76"/>
        <lane id=":J5_0_1" index="1" disallow="tram rail_urban rail rail_electric rail_fast ship" speed="22.35" length="0.30" width="3.66" shape="1122.76,850.60,49.76 1122.47,850.52,49.76"/>
    </edge>
    <edge id=":J6_0" function="internal">
        <lane id=":J6_0_0" index="0" speed="14.77" length="13.03" shape="1702.96,970.33,51.55 1704.24,957.37,51.48"/>
    </edge>
    <edge id=":J6_1" function="internal">
        <lane id=":J6_1_0" index="0" speed="14.77" length="13.05" shape="1706.78,970.59,51.55 1707.44,957.55,51.48"/>
    </edge>
    <edge id=":J7_0" function="internal">
        <lane id=":J7_0_0" index="0" disallow="tram rail_urban rail rail_electric rail_fast ship" speed="22.35" length="0.30" width="3.66" shape="834.05,754.90,48.73 834.34,754.98,48.73"/>
        <lane id=":J7_0_1" index="1" disallow="tram rail_urban rail rail_electric rail_fast ship" speed="22.35" length="0.30" width="3.66" shape="833.10,758.44,48.73 833.39,758.52,48.73"/>
    </edge>
    <edge id=":gneJ11_0" function="internal">
        <lane id=":gneJ11_0_0" index="0" disallow="tram rail_urban rail rail_electric rail_fast ship" speed="12.54" length="15.14" width="3.66" shape="1332.10,872.84,50.77 1334.23,869.72,50.87 1336.41,866.59,50.97 1338.40,863.36,51.07 1339.95,859.95,51.17"/>
    </edge>
    <edge id=":gneJ11_1" function="internal">
        <lane id=":gneJ11_1_0" index="0" disallow="tram rail_urban rail rail_electric rail_fast ship" speed="11.18" length="16.23" width="3.66" shape="1335.35,875.51,50.74 1339.95,859.95,51.17"/>
    </edge>
    <edge id=":gneJ12_0" function="internal">
        <lane id=":gneJ12_0_0" index="0" disallow="tram rail_urban rail rail_electric rail_fast ship" speed="14.53" length="8.74" width="3.66" shape="1312.78,907.00,50.52 1310.67,905.56,50.54 1309.49,904.09,50.55 1308.26,902.77,50.56 1305.99,901.75,50.58"/>
    </edge>
    <edge id=":gneJ12_1" function="internal">
        <lane id=":gneJ12_1_0" index="0" disallow="tram rail_urban rail rail_electric rail_fast ship" speed="22.35" length="7.95" width="3.66" shape="1313.66,903.75,50.59 1305.99,901.75,50.58"/>
        <lane id=":gneJ12_1_1" index="1" disallow="tram rail_urban rail rail_electric rail_fast ship" speed="22.35" length="7.95" width="3.66" shape="1314.62,900.22,50.59 1306.91,898.20,50.58"/>
    </edge>
    <edge id=":gneJ14_0" function="internal">
        <lane id=":gneJ14_0_0" index="0" disallow="tram rail_urban rail rail_electric rail_fast ship" speed="6.71" length="17.45" width="3.66" shape="1313.46,950.33,50.32 1314.34,944.73,50.29 1314.38,940.29,50.27 1314.28,936.54,50.26 1314.73,932.98,50.24"/>
    </edge>
    <edge id=":gneJ14_1" function="internal">
        <lane id=":gneJ14_1_0" index="0" disallow="tram rail_urban rail rail_electric rail_fast ship" speed="6.71" length="17.06" width="3.66" shape="1313.46,950.33,50.32 1318.59,934.01,50.32"/>
        <lane id=":gneJ14_1_1" index="1" disallow="tram rail_urban rail rail_electric rail_fast ship" speed="6.71" length="17.06" width="3.66" shape="1317.01,951.20,50.32 1322.13,934.96,50.32"/>
    </edge>
    <edge id=":gneJ16_0" function="internal">
        <lane id=":gneJ16_0_0" index="0" disallow="tram rail_urban rail rail_electric rail_fast ship" speed="18.12" length="13.68" width="3.66" shape="1425.47,933.83,51.00 1421.26,933.24,50.98 1418.03,933.55,50.97 1415.13,933.94,50.96 1411.89,933.60,50.95"/>
    </edge>
    <edge id=":gneJ16_1" function="internal">
        <lane id=":gneJ16_1_0" index="0" disallow="tram rail_urban rail rail_electric rail_fast ship" speed="22.35" length="13.44" width="3.66" shape="1425.47,933.83,51.00 1412.88,929.95,51.00"/>
        <lane id=":gneJ16_1_1" index="1" disallow="tram rail_urban rail rail_electric rail_fast ship" speed="22.35" length="13.44" width="3.66" shape="1426.41,930.29,51.00 1413.84,926.42,51.00"/>
        <lane id=":gneJ16_1_2" index="2" disallow="tram rail_urban rail rail_electric rail_fast ship" speed="22.35" length="13.44" width="3.66" shape="1426.41,930.29,51.00 1422.72,928.64,51.00 1420.60,926.60,51.00 1418.48,924.55,51.00 1414.80,922.89,51.00"/>
    </edge>
    <edge id=":gneJ17_0" function="internal">
        <lane id=":gneJ17_0_0" index="0" disallow="tram rail_urban rail rail_electric rail_fast ship" speed="10.30" length="11.73" width="3.66" shape="1334.11,921.09,50.48 1331.86,923.48,50.44 1329.97,925.38,50.41 1328.43,927.46,50.38 1327.26,930.42,50.35"/>
    </edge>
    <edge id=":gneJ17_1" function="internal">
        <lane id=":gneJ17_1_0" index="0" disallow="tram rail_urban rail rail_electric rail_fast ship" speed="6.71" length="11.72" width="3.66" shape="1330.38,919.12,50.47 1327.26,930.42,50.35"/>
    </edge>
    <edge id=":gneJ18_0" function="internal">
        <lane id=":gneJ18_0_0" index="0" disallow="tram rail_urban rail rail_electric rail_fast ship" speed="18.12" length="22.91" width="3.66" shape="1372.75,899.94,50.85 1379.70,901.16,50.84 1385.94,901.46,50.84 1391.27,901.51,50.83 1395.51,902.02,50.83"/>
    </edge>
    <edge id=":gneJ18_1" function="internal">
        <lane id=":gneJ18_1_0" index="0" disallow="tram rail_urban rail rail_electric rail_fast ship" speed="22.35" length="22.53" width="3.66" shape="1372.75,899.94,50.85 1394.56,905.61,50.89"/>
        <lane id=":gneJ18_1_1" index="1" disallow="tram rail_urban rail rail_electric rail_fast ship" speed="22.35" length="22.53" width="3.66" shape="1371.81,903.48,50.85 1393.62,909.15,50.89"/>
    </edge>
    <edge id=":gneJ21_0" function="internal">
        <lane id=":gneJ21_0_0" index="0" disallow="tram rail_urban rail rail_electric rail_fast ship" speed="22.35" length="40.16" width="3.66" shape="1580.37,954.88,51.59 1618.90,966.13,51.71"/>
        <lane id=":gneJ21_0_1" index="1" disallow="tram rail_urban rail rail_electric rail_fast ship" speed="22.35" length="40.16" width="3.66" shape="1579.41,958.42,51.59 1617.88,969.65,51.71"/>
        <lane id=":gneJ21_0_2" index="2" disallow="tram rail_urban rail rail_electric rail_fast ship" speed="22.35" length="40.16" width="3.66" shape="1579.41,958.42,51.59 1587.31,961.23,51.61 1596.36,965.21,51.64 1606.29,969.47,51.68 1616.87,973.16,51.71"/>
    </edge>
    <edge id=":gneJ22_0" function="internal">